Version 4
SHEET 1 4172 3268
WIRE -784 -1760 -976 -1760
WIRE -544 -1760 -784 -1760
WIRE -336 -1760 -336 -1808
WIRE -336 -1760 -544 -1760
WIRE 32 -1760 -336 -1760
WIRE -784 -1728 -784 -1760
WIRE -544 -1728 -544 -1760
WIRE -336 -1728 -336 -1760
WIRE 32 -1728 32 -1760
WIRE -976 -1712 -976 -1760
WIRE -784 -1680 -784 -1712
WIRE -544 -1680 -544 -1712
WIRE -336 -1680 -336 -1712
WIRE 32 -1680 32 -1712
WIRE -976 -1664 -976 -1696
WIRE 32 -1600 32 -1632
WIRE 32 -1600 -128 -1600
WIRE -336 -1584 -336 -1632
WIRE -128 -1584 -128 -1600
WIRE 32 -1584 32 -1600
WIRE -336 -1536 -336 -1568
WIRE -128 -1536 -128 -1568
WIRE 32 -1536 32 -1568
WIRE -336 -1456 -336 -1488
WIRE -128 -1456 -128 -1488
WIRE -128 -1456 -336 -1456
WIRE 32 -1456 32 -1488
WIRE 32 -1456 -128 -1456
WIRE -544 -1440 -544 -1632
WIRE 32 -1440 32 -1456
WIRE -336 -1424 -336 -1456
WIRE -2064 -1408 -2064 -1440
WIRE -544 -1392 -544 -1424
WIRE 32 -1392 32 -1424
WIRE -2112 -1376 -2128 -1376
WIRE -336 -1376 -336 -1408
WIRE -2128 -1344 -2128 -1376
WIRE -2128 -1344 -2160 -1344
WIRE -2064 -1344 -2064 -1360
WIRE -1968 -1344 -2064 -1344
WIRE -2064 -1328 -2064 -1344
WIRE -784 -1312 -784 -1632
WIRE -544 -1312 -544 -1344
WIRE -336 -1312 -336 -1328
WIRE -336 -1312 -544 -1312
WIRE 32 -1312 32 -1344
WIRE 32 -1312 -336 -1312
WIRE -2528 -1296 -2528 -1328
WIRE -544 -1296 -544 -1312
WIRE 32 -1296 32 -1312
WIRE -3232 -1280 -3232 -1312
WIRE -3008 -1280 -3008 -1312
WIRE -2800 -1280 -2800 -1312
WIRE -2576 -1264 -2592 -1264
WIRE -784 -1264 -784 -1296
WIRE -3280 -1248 -3328 -1248
WIRE -3056 -1248 -3088 -1248
WIRE -2848 -1248 -2896 -1248
WIRE -2128 -1248 -2128 -1344
WIRE -2112 -1248 -2128 -1248
WIRE -2064 -1248 -2064 -1280
WIRE -544 -1248 -544 -1280
WIRE 32 -1248 32 -1280
WIRE -2896 -1232 -2896 -1248
WIRE -2896 -1232 -3008 -1232
WIRE -2528 -1232 -2528 -1248
WIRE -2448 -1232 -2528 -1232
WIRE -3232 -1216 -3232 -1232
WIRE -3008 -1216 -3008 -1232
WIRE -2800 -1216 -2800 -1232
WIRE -2592 -1216 -2592 -1264
WIRE -2592 -1216 -2800 -1216
WIRE -2528 -1216 -2528 -1232
WIRE -2064 -1216 -2064 -1232
WIRE -3328 -1184 -3328 -1248
WIRE -3328 -1184 -3408 -1184
WIRE -784 -1184 -784 -1216
WIRE -544 -1184 -544 -1200
WIRE -544 -1184 -784 -1184
WIRE 32 -1184 32 -1200
WIRE 32 -1184 -544 -1184
WIRE -3232 -1168 -3232 -1200
WIRE -976 -1168 -976 -1616
WIRE -784 -1168 -784 -1184
WIRE 32 -1168 32 -1184
WIRE -3280 -1136 -3360 -1136
WIRE -3056 -1136 -3120 -1136
WIRE -3008 -1136 -3008 -1168
WIRE -2848 -1136 -2864 -1136
WIRE -2800 -1136 -2800 -1168
WIRE -2592 -1136 -2592 -1216
WIRE -2576 -1136 -2592 -1136
WIRE -2528 -1136 -2528 -1168
WIRE 464 -1136 464 -1168
WIRE 752 -1136 752 -1168
WIRE -3120 -1120 -3120 -1136
WIRE -3120 -1120 -3232 -1120
WIRE -976 -1120 -976 -1152
WIRE -784 -1120 -784 -1152
WIRE 32 -1120 32 -1152
WIRE -3232 -1104 -3232 -1120
WIRE -2800 -1104 -2800 -1120
WIRE -2528 -1104 -2528 -1120
WIRE 416 -1104 400 -1104
WIRE 704 -1104 688 -1104
WIRE -3360 -1056 -3360 -1136
WIRE -3360 -1056 -3408 -1056
WIRE -3088 -1040 -3088 -1248
WIRE -3056 -1040 -3088 -1040
WIRE -3008 -1040 -3008 -1072
WIRE -3328 -1024 -3328 -1184
WIRE -3280 -1024 -3328 -1024
WIRE -3232 -1024 -3232 -1056
WIRE -2896 -1024 -2896 -1232
WIRE -2848 -1024 -2896 -1024
WIRE -2800 -1024 -2800 -1056
WIRE -3008 -1008 -3008 -1024
WIRE -976 -1008 -976 -1072
WIRE -976 -1008 -992 -1008
WIRE -784 -1008 -784 -1072
WIRE -784 -1008 -976 -1008
WIRE 32 -1008 32 -1072
WIRE 32 -1008 -784 -1008
WIRE 400 -1008 400 -1104
WIRE 400 -1008 32 -1008
WIRE 464 -1008 464 -1088
WIRE 608 -1008 464 -1008
WIRE 688 -1008 688 -1104
WIRE 688 -1008 608 -1008
WIRE 752 -1008 752 -1088
WIRE 896 -1008 752 -1008
WIRE -3232 -992 -3232 -1008
WIRE -2800 -992 -2800 -1008
WIRE -784 -976 -784 -1008
WIRE 464 -976 464 -1008
WIRE 752 -976 752 -1008
WIRE -3360 -960 -3360 -1056
WIRE -3088 -960 -3088 -1040
WIRE -3088 -960 -3360 -960
WIRE -2864 -960 -2864 -1136
WIRE -2864 -960 -3088 -960
WIRE -992 -960 -992 -1008
WIRE 32 -960 32 -1008
WIRE 608 -960 608 -1008
WIRE 896 -960 896 -1008
WIRE -2048 -912 -2048 -944
WIRE -784 -896 -784 -928
WIRE 400 -896 400 -1008
WIRE 416 -896 400 -896
WIRE 464 -896 464 -928
WIRE 688 -896 688 -1008
WIRE 704 -896 688 -896
WIRE 752 -896 752 -928
WIRE -2096 -880 -2112 -880
WIRE -992 -880 -992 -912
WIRE 32 -880 32 -912
WIRE -2112 -848 -2112 -880
WIRE -2112 -848 -2144 -848
WIRE -2048 -848 -2048 -864
WIRE -1952 -848 -2048 -848
WIRE -784 -848 -784 -880
WIRE -544 -848 -784 -848
WIRE 32 -848 32 -864
WIRE 32 -848 -544 -848
WIRE -2048 -832 -2048 -848
WIRE -784 -832 -784 -848
WIRE -544 -832 -544 -848
WIRE 32 -832 32 -848
WIRE -2528 -768 -2528 -800
WIRE -3232 -752 -3232 -784
WIRE -3008 -752 -3008 -784
WIRE -2800 -752 -2800 -784
WIRE -2112 -752 -2112 -848
WIRE -2096 -752 -2112 -752
WIRE -2048 -752 -2048 -784
WIRE -784 -752 -784 -784
WIRE -544 -752 -544 -784
WIRE 32 -752 32 -784
WIRE -2576 -736 -2592 -736
WIRE -3280 -720 -3328 -720
WIRE -3056 -720 -3088 -720
WIRE -2848 -720 -2896 -720
WIRE -2048 -720 -2048 -736
WIRE -544 -720 -544 -736
WIRE -336 -720 -544 -720
WIRE 32 -720 32 -736
WIRE 32 -720 -336 -720
WIRE -2896 -704 -2896 -720
WIRE -2896 -704 -3008 -704
WIRE -2528 -704 -2528 -720
WIRE -2448 -704 -2528 -704
WIRE -544 -704 -544 -720
WIRE -336 -704 -336 -720
WIRE -3232 -688 -3232 -704
WIRE -3008 -688 -3008 -704
WIRE -2800 -688 -2800 -704
WIRE -2592 -688 -2592 -736
WIRE -2592 -688 -2800 -688
WIRE -2528 -688 -2528 -704
WIRE -3328 -656 -3328 -720
WIRE -3328 -656 -3408 -656
WIRE -3232 -640 -3232 -672
WIRE 32 -640 32 -672
WIRE -544 -624 -544 -656
WIRE -336 -624 -336 -656
WIRE -3280 -608 -3360 -608
WIRE -3056 -608 -3120 -608
WIRE -3008 -608 -3008 -640
WIRE -2848 -608 -2864 -608
WIRE -2800 -608 -2800 -640
WIRE -2592 -608 -2592 -688
WIRE -2576 -608 -2592 -608
WIRE -2528 -608 -2528 -640
WIRE -3120 -592 -3120 -608
WIRE -3120 -592 -3232 -592
WIRE -336 -592 -336 -608
WIRE -160 -592 -336 -592
WIRE 32 -592 32 -624
WIRE 32 -592 -160 -592
WIRE -3232 -576 -3232 -592
WIRE -2800 -576 -2800 -592
WIRE -2528 -576 -2528 -592
WIRE -336 -576 -336 -592
WIRE -160 -576 -160 -592
WIRE 32 -576 32 -592
WIRE -3360 -528 -3360 -608
WIRE -3360 -528 -3408 -528
WIRE -3088 -512 -3088 -720
WIRE -3056 -512 -3088 -512
WIRE -3008 -512 -3008 -544
WIRE -3328 -496 -3328 -656
WIRE -3280 -496 -3328 -496
WIRE -3232 -496 -3232 -528
WIRE -2896 -496 -2896 -704
WIRE -2848 -496 -2896 -496
WIRE -2800 -496 -2800 -528
WIRE -336 -496 -336 -528
WIRE -160 -496 -160 -528
WIRE 32 -496 32 -528
WIRE -3008 -480 -3008 -496
WIRE -3232 -464 -3232 -480
WIRE -2800 -464 -2800 -480
WIRE -160 -464 -160 -480
WIRE 32 -464 32 -480
WIRE 32 -464 -160 -464
WIRE -992 -448 -992 -864
WIRE -784 -448 -784 -736
WIRE -544 -448 -544 -608
WIRE -336 -448 -336 -480
WIRE 32 -448 32 -464
WIRE -3360 -432 -3360 -528
WIRE -3088 -432 -3088 -512
WIRE -3088 -432 -3360 -432
WIRE -2864 -432 -2864 -608
WIRE -2864 -432 -3088 -432
WIRE -992 -368 -992 -400
WIRE -784 -368 -784 -400
WIRE -544 -368 -544 -400
WIRE -336 -368 -336 -400
WIRE 32 -368 32 -400
WIRE -992 -304 -992 -352
WIRE -784 -304 -784 -352
WIRE -784 -304 -992 -304
WIRE -544 -304 -544 -352
WIRE -544 -304 -784 -304
WIRE -336 -304 -336 -352
WIRE -336 -304 -544 -304
WIRE 32 -304 32 -352
WIRE 32 -304 -336 -304
WIRE -2032 -288 -2032 -320
WIRE -2080 -256 -2096 -256
WIRE -336 -256 -336 -304
WIRE -2096 -224 -2096 -256
WIRE -2096 -224 -2128 -224
WIRE -2032 -224 -2032 -240
WIRE -1936 -224 -2032 -224
WIRE -2032 -208 -2032 -224
WIRE -2528 -160 -2528 -192
WIRE -3232 -144 -3232 -176
WIRE -3008 -144 -3008 -176
WIRE -2800 -144 -2800 -176
WIRE -2576 -128 -2592 -128
WIRE -2096 -128 -2096 -224
WIRE -2080 -128 -2096 -128
WIRE -2032 -128 -2032 -160
WIRE 2064 -128 2064 -160
WIRE 2288 -128 2288 -160
WIRE -3280 -112 -3328 -112
WIRE -3056 -112 -3088 -112
WIRE -2848 -112 -2896 -112
WIRE 1248 -112 1248 -144
WIRE 1472 -112 1472 -144
WIRE -2896 -96 -2896 -112
WIRE -2896 -96 -3008 -96
WIRE -2528 -96 -2528 -112
WIRE -2448 -96 -2528 -96
WIRE -2032 -96 -2032 -112
WIRE -3232 -80 -3232 -96
WIRE -3008 -80 -3008 -96
WIRE -2800 -80 -2800 -96
WIRE -2592 -80 -2592 -128
WIRE -2592 -80 -2800 -80
WIRE -2528 -80 -2528 -96
WIRE 1744 -64 1744 -96
WIRE -3328 -48 -3328 -112
WIRE -3328 -48 -3408 -48
WIRE 2064 -48 2064 -80
WIRE 2288 -48 2288 -80
WIRE -3232 -32 -3232 -64
WIRE 1248 -32 1248 -64
WIRE 1472 -32 1472 -64
WIRE -3280 0 -3360 0
WIRE -3056 0 -3120 0
WIRE -3008 0 -3008 -32
WIRE -2848 0 -2864 0
WIRE -2800 0 -2800 -32
WIRE -2592 0 -2592 -80
WIRE -2576 0 -2592 0
WIRE -2528 0 -2528 -32
WIRE 2064 0 2064 -32
WIRE 2288 0 2288 -32
WIRE 3728 0 3728 -32
WIRE -3120 16 -3120 0
WIRE -3120 16 -3232 16
WIRE 1248 16 1248 -16
WIRE 1472 16 1472 -16
WIRE 3024 16 3024 -16
WIRE 3248 16 3248 -16
WIRE 3456 16 3456 -16
WIRE -3232 32 -3232 16
WIRE -2800 32 -2800 16
WIRE -2528 32 -2528 16
WIRE 3680 32 3664 32
WIRE 2976 48 2928 48
WIRE 3200 48 3168 48
WIRE 3408 48 3360 48
WIRE 3360 64 3360 48
WIRE 3360 64 3248 64
WIRE 3728 64 3728 48
WIRE 3824 64 3728 64
WIRE -3360 80 -3360 0
WIRE -3360 80 -3408 80
WIRE 1744 80 1744 -16
WIRE 1792 80 1744 80
WIRE 3024 80 3024 64
WIRE 3248 80 3248 64
WIRE 3456 80 3456 64
WIRE 3664 80 3664 32
WIRE 3664 80 3456 80
WIRE 3728 80 3728 64
WIRE -3088 96 -3088 -112
WIRE -3056 96 -3088 96
WIRE -3008 96 -3008 64
WIRE 2064 96 2064 48
WIRE 2288 96 2288 48
WIRE 2288 96 2064 96
WIRE 2432 96 2288 96
WIRE -3328 112 -3328 -48
WIRE -3280 112 -3328 112
WIRE -3232 112 -3232 80
WIRE -2896 112 -2896 -96
WIRE -2848 112 -2896 112
WIRE -2800 112 -2800 80
WIRE 1248 112 1248 64
WIRE 1472 112 1472 64
WIRE 1472 112 1248 112
WIRE 1584 112 1472 112
WIRE 1696 112 1696 -32
WIRE 1696 112 1584 112
WIRE 2928 112 2928 48
WIRE 2928 112 2848 112
WIRE -3008 128 -3008 112
WIRE 3024 128 3024 96
WIRE -3232 144 -3232 128
WIRE -2800 144 -2800 128
WIRE 1744 144 1744 80
WIRE 2064 144 2064 96
WIRE 2288 144 2288 96
WIRE 1248 160 1248 112
WIRE 1472 160 1472 112
WIRE 2976 160 2896 160
WIRE 3200 160 3136 160
WIRE 3248 160 3248 128
WIRE 3408 160 3392 160
WIRE 3456 160 3456 128
WIRE 3664 160 3664 80
WIRE 3680 160 3664 160
WIRE 3728 160 3728 128
WIRE -3360 176 -3360 80
WIRE -3088 176 -3088 96
WIRE -3088 176 -3360 176
WIRE -2864 176 -2864 0
WIRE -2864 176 -3088 176
WIRE -640 176 -880 176
WIRE -432 176 -432 128
WIRE -432 176 -640 176
WIRE -64 176 -432 176
WIRE 3136 176 3136 160
WIRE 3136 176 3024 176
WIRE 3024 192 3024 176
WIRE 3456 192 3456 176
WIRE 3728 192 3728 176
WIRE -880 208 -880 176
WIRE -640 208 -640 176
WIRE -432 208 -432 176
WIRE -64 208 -64 176
WIRE 1696 224 1696 112
WIRE 1744 224 1744 192
WIRE 2064 224 2064 192
WIRE 2288 224 2288 192
WIRE 1248 240 1248 208
WIRE 1472 240 1472 208
WIRE 2896 240 2896 160
WIRE 2896 240 2848 240
WIRE -2032 256 -2032 224
WIRE -880 256 -880 224
WIRE -640 256 -640 224
WIRE -432 256 -432 224
WIRE -64 256 -64 224
WIRE 3168 256 3168 48
WIRE 3200 256 3168 256
WIRE 3248 256 3248 224
WIRE 2064 272 2064 240
WIRE 2288 272 2288 240
WIRE 2928 272 2928 112
WIRE 2976 272 2928 272
WIRE 3024 272 3024 240
WIRE 3360 272 3360 64
WIRE 3408 272 3360 272
WIRE 3456 272 3456 240
WIRE -2080 288 -2096 288
WIRE 1248 288 1248 256
WIRE 1472 288 1472 256
WIRE 3248 288 3248 272
WIRE 3024 304 3024 288
WIRE 3456 304 3456 288
WIRE -2096 320 -2096 288
WIRE -2096 320 -2128 320
WIRE -2032 320 -2032 304
WIRE -1936 320 -2032 320
WIRE -2032 336 -2032 320
WIRE -64 336 -64 304
WIRE -64 336 -224 336
WIRE 2896 336 2896 240
WIRE 3168 336 3168 256
WIRE 3168 336 2896 336
WIRE 3392 336 3392 160
WIRE 3392 336 3168 336
WIRE -432 352 -432 304
WIRE -224 352 -224 336
WIRE -64 352 -64 336
WIRE 2064 352 2064 320
WIRE 2288 352 2288 320
WIRE -2528 368 -2528 336
WIRE 1248 368 1248 336
WIRE 1472 368 1472 336
WIRE -3232 384 -3232 352
WIRE -3008 384 -3008 352
WIRE -2800 384 -2800 352
WIRE -2576 400 -2592 400
WIRE -432 400 -432 368
WIRE -224 400 -224 368
WIRE -64 400 -64 368
WIRE -3280 416 -3328 416
WIRE -3056 416 -3088 416
WIRE -2848 416 -2896 416
WIRE -2096 416 -2096 320
WIRE -2080 416 -2096 416
WIRE -2032 416 -2032 384
WIRE -2896 432 -2896 416
WIRE -2896 432 -3008 432
WIRE -2528 432 -2528 416
WIRE -2448 432 -2528 432
WIRE -3232 448 -3232 432
WIRE -3008 448 -3008 432
WIRE -2800 448 -2800 432
WIRE -2592 448 -2592 400
WIRE -2592 448 -2800 448
WIRE -2528 448 -2528 432
WIRE -2032 448 -2032 432
WIRE -3328 480 -3328 416
WIRE -3328 480 -3408 480
WIRE -432 480 -432 448
WIRE -224 480 -224 448
WIRE -224 480 -432 480
WIRE -64 480 -64 448
WIRE -64 480 -224 480
WIRE -3232 496 -3232 464
WIRE -640 496 -640 304
WIRE -64 496 -64 480
WIRE -432 512 -432 480
WIRE -3280 528 -3360 528
WIRE -3056 528 -3120 528
WIRE -3008 528 -3008 496
WIRE -2848 528 -2864 528
WIRE -2800 528 -2800 496
WIRE -2592 528 -2592 448
WIRE -2576 528 -2592 528
WIRE -2528 528 -2528 496
WIRE -3120 544 -3120 528
WIRE -3120 544 -3232 544
WIRE -640 544 -640 512
WIRE -64 544 -64 512
WIRE -3232 560 -3232 544
WIRE -2800 560 -2800 544
WIRE -2528 560 -2528 544
WIRE -432 560 -432 528
WIRE -3360 608 -3360 528
WIRE -3360 608 -3408 608
WIRE -3088 624 -3088 416
WIRE -3056 624 -3088 624
WIRE -3008 624 -3008 592
WIRE -880 624 -880 304
WIRE -640 624 -640 592
WIRE -432 624 -432 608
WIRE -432 624 -640 624
WIRE -64 624 -64 592
WIRE -64 624 -432 624
WIRE 608 624 608 592
WIRE -3328 640 -3328 480
WIRE -3280 640 -3328 640
WIRE -3232 640 -3232 608
WIRE -2896 640 -2896 432
WIRE -2848 640 -2896 640
WIRE -2800 640 -2800 608
WIRE -640 640 -640 624
WIRE -64 640 -64 624
WIRE 240 640 240 608
WIRE -3008 656 -3008 640
WIRE 560 656 512 656
WIRE -3232 672 -3232 656
WIRE -2800 672 -2800 656
WIRE -880 672 -880 640
WIRE 192 672 144 672
WIRE -640 688 -640 656
WIRE -64 688 -64 656
WIRE 2096 688 2096 656
WIRE 2320 688 2320 656
WIRE -3360 704 -3360 608
WIRE -3088 704 -3088 624
WIRE -3088 704 -3360 704
WIRE -2864 704 -2864 528
WIRE -2864 704 -3088 704
WIRE 1280 704 1280 672
WIRE 1504 704 1504 672
WIRE 608 720 608 672
WIRE 800 720 608 720
WIRE 240 736 240 688
WIRE 432 736 240 736
WIRE 512 736 512 656
WIRE 512 736 432 736
WIRE 608 752 608 720
WIRE 800 752 800 720
WIRE 1776 752 1776 720
WIRE -880 768 -880 720
WIRE -640 768 -640 736
WIRE -640 768 -880 768
WIRE -64 768 -64 736
WIRE -64 768 -640 768
WIRE 144 768 144 672
WIRE 144 768 -64 768
WIRE 240 768 240 736
WIRE 432 768 432 736
WIRE 2096 768 2096 736
WIRE 2320 768 2320 736
WIRE 1280 784 1280 752
WIRE 1504 784 1504 752
WIRE -2032 800 -2032 768
WIRE 3840 800 3840 768
WIRE -880 816 -880 768
WIRE -640 816 -640 768
WIRE -64 816 -64 768
WIRE 2096 816 2096 784
WIRE 2320 816 2320 784
WIRE 3136 816 3136 784
WIRE 3360 816 3360 784
WIRE 3568 816 3568 784
WIRE -2080 832 -2096 832
WIRE 512 832 512 736
WIRE 560 832 512 832
WIRE 608 832 608 800
WIRE 1280 832 1280 800
WIRE 1504 832 1504 800
WIRE 3792 832 3776 832
WIRE 144 848 144 768
WIRE 192 848 144 848
WIRE 240 848 240 816
WIRE 3088 848 3040 848
WIRE 3312 848 3280 848
WIRE 3520 848 3472 848
WIRE -2096 864 -2096 832
WIRE -2096 864 -2128 864
WIRE -2032 864 -2032 848
WIRE -1936 864 -2032 864
WIRE 3472 864 3472 848
WIRE 3472 864 3360 864
WIRE 3840 864 3840 848
WIRE 3936 864 3840 864
WIRE -2032 880 -2032 864
WIRE 3136 880 3136 864
WIRE 3360 880 3360 864
WIRE 3568 880 3568 864
WIRE 3776 880 3776 832
WIRE 3776 880 3568 880
WIRE 3840 880 3840 864
WIRE -880 896 -880 864
WIRE -640 896 -640 864
WIRE -64 896 -64 864
WIRE 1776 896 1776 800
WIRE 1824 896 1776 896
WIRE 2096 912 2096 864
WIRE 2320 912 2320 864
WIRE 2320 912 2096 912
WIRE 2464 912 2320 912
WIRE 3040 912 3040 848
WIRE 3040 912 2960 912
WIRE -640 928 -640 912
WIRE -432 928 -640 928
WIRE -64 928 -64 912
WIRE -64 928 -432 928
WIRE 1280 928 1280 880
WIRE 1504 928 1504 880
WIRE 1504 928 1280 928
WIRE 1616 928 1504 928
WIRE 1728 928 1728 784
WIRE 1728 928 1616 928
WIRE 3136 928 3136 896
WIRE -640 944 -640 928
WIRE -432 944 -432 928
WIRE -2528 960 -2528 928
WIRE -2096 960 -2096 864
WIRE -2080 960 -2096 960
WIRE -2032 960 -2032 928
WIRE 1776 960 1776 896
WIRE 2096 960 2096 912
WIRE 2320 960 2320 912
WIRE 3088 960 3008 960
WIRE 3312 960 3248 960
WIRE 3360 960 3360 928
WIRE 3520 960 3504 960
WIRE 3568 960 3568 928
WIRE 3776 960 3776 880
WIRE 3792 960 3776 960
WIRE 3840 960 3840 928
WIRE -3232 976 -3232 944
WIRE -3008 976 -3008 944
WIRE -2800 976 -2800 944
WIRE 1280 976 1280 928
WIRE 1504 976 1504 928
WIRE 3248 976 3248 960
WIRE 3248 976 3136 976
WIRE -2576 992 -2592 992
WIRE -2032 992 -2032 976
WIRE 3136 992 3136 976
WIRE 3568 992 3568 976
WIRE 3840 992 3840 976
WIRE -3280 1008 -3328 1008
WIRE -3056 1008 -3088 1008
WIRE -2848 1008 -2896 1008
WIRE -64 1008 -64 976
WIRE -2896 1024 -2896 1008
WIRE -2896 1024 -3008 1024
WIRE -2528 1024 -2528 1008
WIRE -2432 1024 -2528 1024
WIRE -640 1024 -640 992
WIRE -432 1024 -432 992
WIRE -3232 1040 -3232 1024
WIRE -3008 1040 -3008 1024
WIRE -2800 1040 -2800 1024
WIRE -2592 1040 -2592 992
WIRE -2592 1040 -2800 1040
WIRE -2528 1040 -2528 1024
WIRE 1728 1040 1728 928
WIRE 1776 1040 1776 1008
WIRE 2096 1040 2096 1008
WIRE 2320 1040 2320 1008
WIRE 3008 1040 3008 960
WIRE 3008 1040 2960 1040
WIRE -432 1056 -432 1040
WIRE -256 1056 -432 1056
WIRE -64 1056 -64 1024
WIRE -64 1056 -256 1056
WIRE 1280 1056 1280 1024
WIRE 1504 1056 1504 1024
WIRE 3280 1056 3280 848
WIRE 3312 1056 3280 1056
WIRE 3360 1056 3360 1024
WIRE -3328 1072 -3328 1008
WIRE -3328 1072 -3408 1072
WIRE -432 1072 -432 1056
WIRE -256 1072 -256 1056
WIRE -64 1072 -64 1056
WIRE 3040 1072 3040 912
WIRE 3088 1072 3040 1072
WIRE 3136 1072 3136 1040
WIRE 3472 1072 3472 864
WIRE 3520 1072 3472 1072
WIRE 3568 1072 3568 1040
WIRE -3232 1088 -3232 1056
WIRE 2096 1088 2096 1056
WIRE 2320 1088 2320 1056
WIRE 3360 1088 3360 1072
WIRE 1280 1104 1280 1072
WIRE 1504 1104 1504 1072
WIRE 3136 1104 3136 1088
WIRE 3568 1104 3568 1088
WIRE -3280 1120 -3360 1120
WIRE -3056 1120 -3120 1120
WIRE -3008 1120 -3008 1088
WIRE -2848 1120 -2864 1120
WIRE -2800 1120 -2800 1088
WIRE -2592 1120 -2592 1040
WIRE -2576 1120 -2592 1120
WIRE -2528 1120 -2528 1088
WIRE -3120 1136 -3120 1120
WIRE -3120 1136 -3232 1136
WIRE 3008 1136 3008 1040
WIRE 3280 1136 3280 1056
WIRE 3280 1136 3008 1136
WIRE 3504 1136 3504 960
WIRE 3504 1136 3280 1136
WIRE -3232 1152 -3232 1136
WIRE -2800 1152 -2800 1136
WIRE -2528 1152 -2528 1136
WIRE -432 1152 -432 1120
WIRE -256 1152 -256 1120
WIRE -64 1152 -64 1120
WIRE 2096 1168 2096 1136
WIRE 2320 1168 2320 1136
WIRE -256 1184 -256 1168
WIRE -64 1184 -64 1168
WIRE -64 1184 -256 1184
WIRE 1280 1184 1280 1152
WIRE 1504 1184 1504 1152
WIRE -3360 1200 -3360 1120
WIRE -3360 1200 -3408 1200
WIRE -880 1200 -880 912
WIRE -640 1200 -640 1040
WIRE -432 1200 -432 1168
WIRE -64 1200 -64 1184
WIRE -3088 1216 -3088 1008
WIRE -3056 1216 -3088 1216
WIRE -3008 1216 -3008 1184
WIRE -3328 1232 -3328 1072
WIRE -3280 1232 -3328 1232
WIRE -3232 1232 -3232 1200
WIRE -2896 1232 -2896 1024
WIRE -2848 1232 -2896 1232
WIRE -2800 1232 -2800 1200
WIRE -3008 1248 -3008 1232
WIRE -3232 1264 -3232 1248
WIRE -2800 1264 -2800 1248
WIRE -880 1280 -880 1248
WIRE -640 1280 -640 1248
WIRE -432 1280 -432 1248
WIRE -64 1280 -64 1248
WIRE -3360 1296 -3360 1200
WIRE -3088 1296 -3088 1216
WIRE -3088 1296 -3360 1296
WIRE -2864 1296 -2864 1120
WIRE -2864 1296 -3088 1296
WIRE -2048 1328 -2048 1296
WIRE -880 1344 -880 1296
WIRE -640 1344 -640 1296
WIRE -640 1344 -880 1344
WIRE -432 1344 -432 1296
WIRE -432 1344 -640 1344
WIRE -64 1344 -64 1296
WIRE -64 1344 -432 1344
WIRE -2096 1360 -2112 1360
WIRE -2112 1392 -2112 1360
WIRE -2112 1392 -2144 1392
WIRE -2048 1392 -2048 1376
WIRE -1952 1392 -2048 1392
WIRE -432 1392 -432 1344
WIRE -2048 1408 -2048 1392
WIRE -2528 1488 -2528 1456
WIRE -2112 1488 -2112 1392
WIRE -2096 1488 -2112 1488
WIRE -2048 1488 -2048 1456
WIRE -3232 1504 -3232 1472
WIRE -3008 1504 -3008 1472
WIRE -2800 1504 -2800 1472
WIRE -2576 1520 -2592 1520
WIRE -2048 1520 -2048 1504
WIRE -3280 1536 -3328 1536
WIRE -3056 1536 -3088 1536
WIRE -2848 1536 -2896 1536
WIRE -2896 1552 -2896 1536
WIRE -2896 1552 -3008 1552
WIRE -2528 1552 -2528 1536
WIRE -2432 1552 -2528 1552
WIRE 2128 1552 2128 1520
WIRE 2352 1552 2352 1520
WIRE -3232 1568 -3232 1552
WIRE -3008 1568 -3008 1552
WIRE -2800 1568 -2800 1552
WIRE -2592 1568 -2592 1520
WIRE -2592 1568 -2800 1568
WIRE -2528 1568 -2528 1552
WIRE -736 1568 -928 1568
WIRE -576 1568 -576 1520
WIRE -576 1568 -736 1568
WIRE -320 1568 -576 1568
WIRE 1312 1568 1312 1536
WIRE 1536 1568 1536 1536
WIRE -3824 1600 -3824 1584
WIRE -3328 1600 -3328 1536
WIRE -3328 1600 -3408 1600
WIRE -3232 1616 -3232 1584
WIRE -928 1616 -928 1568
WIRE -736 1616 -736 1568
WIRE -320 1616 -320 1568
WIRE 1808 1616 1808 1584
WIRE 2128 1632 2128 1600
WIRE 2352 1632 2352 1600
WIRE -3280 1648 -3360 1648
WIRE -3056 1648 -3120 1648
WIRE -3008 1648 -3008 1616
WIRE -2848 1648 -2864 1648
WIRE -2800 1648 -2800 1616
WIRE -2592 1648 -2592 1568
WIRE -2576 1648 -2592 1648
WIRE -2528 1648 -2528 1616
WIRE 1312 1648 1312 1616
WIRE 1536 1648 1536 1616
WIRE -3120 1664 -3120 1648
WIRE -3120 1664 -3232 1664
WIRE -928 1664 -928 1632
WIRE -736 1664 -736 1632
WIRE -320 1664 -320 1632
WIRE -3232 1680 -3232 1664
WIRE -2800 1680 -2800 1664
WIRE -2528 1680 -2528 1664
WIRE 2128 1680 2128 1648
WIRE 2352 1680 2352 1648
WIRE 3936 1680 3936 1648
WIRE 1312 1696 1312 1664
WIRE 1536 1696 1536 1664
WIRE 3232 1696 3232 1664
WIRE 3456 1696 3456 1664
WIRE 3664 1696 3664 1664
WIRE -320 1712 -528 1712
WIRE 3888 1712 3872 1712
WIRE -3360 1728 -3360 1648
WIRE -3360 1728 -3408 1728
WIRE -736 1728 -736 1712
WIRE -528 1728 -528 1712
WIRE -320 1728 -320 1712
WIRE 3184 1728 3136 1728
WIRE 3408 1728 3376 1728
WIRE 3616 1728 3568 1728
WIRE -3088 1744 -3088 1536
WIRE -3056 1744 -3088 1744
WIRE -3008 1744 -3008 1712
WIRE 3568 1744 3568 1728
WIRE 3568 1744 3456 1744
WIRE 3936 1744 3936 1728
WIRE 4032 1744 3936 1744
WIRE -3328 1760 -3328 1600
WIRE -3280 1760 -3328 1760
WIRE -3232 1760 -3232 1728
WIRE -2896 1760 -2896 1552
WIRE -2848 1760 -2896 1760
WIRE -2800 1760 -2800 1728
WIRE 1808 1760 1808 1664
WIRE 1856 1760 1808 1760
WIRE 3232 1760 3232 1744
WIRE 3456 1760 3456 1744
WIRE 3664 1760 3664 1744
WIRE 3872 1760 3872 1712
WIRE 3872 1760 3664 1760
WIRE 3936 1760 3936 1744
WIRE -3008 1776 -3008 1760
WIRE -736 1776 -736 1744
WIRE -528 1776 -528 1744
WIRE -320 1776 -320 1744
WIRE -64 1776 -64 1760
WIRE 224 1776 224 1760
WIRE 2128 1776 2128 1728
WIRE 2352 1776 2352 1728
WIRE 2352 1776 2128 1776
WIRE 2496 1776 2352 1776
WIRE -3232 1792 -3232 1776
WIRE -2800 1792 -2800 1776
WIRE 1312 1792 1312 1744
WIRE 1536 1792 1536 1744
WIRE 1536 1792 1312 1792
WIRE 1648 1792 1536 1792
WIRE 1760 1792 1760 1648
WIRE 1760 1792 1648 1792
WIRE 3136 1792 3136 1728
WIRE 3136 1792 3056 1792
WIRE 3232 1808 3232 1776
WIRE -3360 1824 -3360 1728
WIRE -3088 1824 -3088 1744
WIRE -3088 1824 -3360 1824
WIRE -2864 1824 -2864 1648
WIRE -2864 1824 -3088 1824
WIRE -528 1824 -736 1824
WIRE -320 1824 -528 1824
WIRE -64 1824 -64 1792
WIRE 224 1824 224 1792
WIRE 1808 1824 1808 1760
WIRE 2128 1824 2128 1776
WIRE 2352 1824 2352 1776
WIRE -928 1840 -928 1712
WIRE -736 1840 -736 1824
WIRE -320 1840 -320 1824
WIRE 1312 1840 1312 1792
WIRE 1536 1840 1536 1792
WIRE 3184 1840 3104 1840
WIRE 3408 1840 3344 1840
WIRE 3456 1840 3456 1808
WIRE 3616 1840 3600 1840
WIRE 3664 1840 3664 1808
WIRE 3872 1840 3872 1760
WIRE 3888 1840 3872 1840
WIRE 3936 1840 3936 1808
WIRE -112 1856 -160 1856
WIRE 176 1856 128 1856
WIRE 3344 1856 3344 1840
WIRE 3344 1856 3232 1856
WIRE 3232 1872 3232 1856
WIRE 3664 1872 3664 1856
WIRE 3936 1872 3936 1856
WIRE -2048 1888 -2048 1856
WIRE -928 1888 -928 1856
WIRE -736 1888 -736 1856
WIRE -320 1888 -320 1856
WIRE 1760 1904 1760 1792
WIRE 1808 1904 1808 1872
WIRE 2128 1904 2128 1872
WIRE 2352 1904 2352 1872
WIRE -2096 1920 -2112 1920
WIRE -64 1920 -64 1872
WIRE 80 1920 -64 1920
WIRE 128 1920 128 1856
WIRE 128 1920 80 1920
WIRE 224 1920 224 1872
WIRE 368 1920 224 1920
WIRE 1312 1920 1312 1888
WIRE 1536 1920 1536 1888
WIRE 3104 1920 3104 1840
WIRE 3104 1920 3056 1920
WIRE 3376 1936 3376 1728
WIRE 3408 1936 3376 1936
WIRE 3456 1936 3456 1904
WIRE -2112 1952 -2112 1920
WIRE -2112 1952 -2144 1952
WIRE -2048 1952 -2048 1936
WIRE -1952 1952 -2048 1952
WIRE 80 1952 80 1920
WIRE 368 1952 368 1920
WIRE 2128 1952 2128 1920
WIRE 2352 1952 2352 1920
WIRE 3136 1952 3136 1792
WIRE 3184 1952 3136 1952
WIRE 3232 1952 3232 1920
WIRE 3568 1952 3568 1744
WIRE 3616 1952 3568 1952
WIRE 3664 1952 3664 1920
WIRE -2048 1968 -2048 1952
WIRE -928 1968 -928 1936
WIRE -736 1968 -736 1936
WIRE -736 1968 -928 1968
WIRE -320 1968 -320 1936
WIRE -320 1968 -736 1968
WIRE -160 1968 -160 1856
WIRE -160 1968 -320 1968
WIRE -64 1968 -64 1920
WIRE 224 1968 224 1920
WIRE 1312 1968 1312 1936
WIRE 1536 1968 1536 1936
WIRE 3456 1968 3456 1952
WIRE 3232 1984 3232 1968
WIRE 3664 1984 3664 1968
WIRE -928 2000 -928 1968
WIRE -736 2000 -736 1968
WIRE -320 2000 -320 1968
WIRE 3104 2016 3104 1920
WIRE 3376 2016 3376 1936
WIRE 3376 2016 3104 2016
WIRE 3600 2016 3600 1840
WIRE 3600 2016 3376 2016
WIRE 2128 2032 2128 2000
WIRE 2352 2032 2352 2000
WIRE -2112 2048 -2112 1952
WIRE -2096 2048 -2112 2048
WIRE -2048 2048 -2048 2016
WIRE -160 2048 -160 1968
WIRE -112 2048 -160 2048
WIRE -64 2048 -64 2016
WIRE 128 2048 128 1920
WIRE 176 2048 128 2048
WIRE 224 2048 224 2016
WIRE 1312 2048 1312 2016
WIRE 1536 2048 1536 2016
WIRE -2048 2080 -2048 2064
WIRE -928 2080 -928 2048
WIRE -736 2080 -736 2048
WIRE -320 2080 -320 2048
WIRE -736 2112 -736 2096
WIRE -528 2112 -736 2112
WIRE -320 2112 -320 2096
WIRE -320 2112 -528 2112
WIRE -2528 2128 -2528 2096
WIRE -736 2128 -736 2112
WIRE -528 2128 -528 2112
WIRE -320 2128 -320 2112
WIRE -3232 2144 -3232 2112
WIRE -3008 2144 -3008 2112
WIRE -2800 2144 -2800 2112
WIRE -2576 2160 -2592 2160
WIRE -3280 2176 -3328 2176
WIRE -3056 2176 -3088 2176
WIRE -2848 2176 -2896 2176
WIRE -2896 2192 -2896 2176
WIRE -2896 2192 -3008 2192
WIRE -2528 2192 -2528 2176
WIRE -2432 2192 -2528 2192
WIRE -3232 2208 -3232 2192
WIRE -3008 2208 -3008 2192
WIRE -2800 2208 -2800 2192
WIRE -2592 2208 -2592 2160
WIRE -2592 2208 -2800 2208
WIRE -2528 2208 -2528 2192
WIRE -736 2208 -736 2176
WIRE -528 2208 -528 2176
WIRE -320 2208 -320 2176
WIRE -3328 2240 -3328 2176
WIRE -3328 2240 -3408 2240
WIRE -528 2240 -528 2224
WIRE -320 2240 -320 2224
WIRE -320 2240 -528 2240
WIRE -3232 2256 -3232 2224
WIRE -928 2256 -928 2096
WIRE -736 2256 -736 2224
WIRE -320 2256 -320 2240
WIRE -3280 2288 -3360 2288
WIRE -3056 2288 -3120 2288
WIRE -3008 2288 -3008 2256
WIRE -2848 2288 -2864 2288
WIRE -2800 2288 -2800 2256
WIRE -2592 2288 -2592 2208
WIRE -2576 2288 -2592 2288
WIRE -2528 2288 -2528 2256
WIRE -3120 2304 -3120 2288
WIRE -3120 2304 -3232 2304
WIRE -3232 2320 -3232 2304
WIRE -2800 2320 -2800 2304
WIRE -2528 2320 -2528 2304
WIRE -928 2336 -928 2304
WIRE -736 2336 -736 2304
WIRE -320 2336 -320 2304
WIRE -736 2352 -928 2352
WIRE -576 2352 -736 2352
WIRE -320 2352 -576 2352
WIRE -3360 2368 -3360 2288
WIRE -3360 2368 -3408 2368
WIRE -3088 2384 -3088 2176
WIRE -3056 2384 -3088 2384
WIRE -3008 2384 -3008 2352
WIRE -576 2384 -576 2352
WIRE -3328 2400 -3328 2240
WIRE -3280 2400 -3328 2400
WIRE -3232 2400 -3232 2368
WIRE -2896 2400 -2896 2192
WIRE -2848 2400 -2896 2400
WIRE -2800 2400 -2800 2368
WIRE -2048 2400 -2048 2368
WIRE -3008 2416 -3008 2400
WIRE -3232 2432 -3232 2416
WIRE -2800 2432 -2800 2416
WIRE -2096 2432 -2112 2432
WIRE -3360 2464 -3360 2368
WIRE -3088 2464 -3088 2384
WIRE -3088 2464 -3360 2464
WIRE -2864 2464 -2864 2288
WIRE -2864 2464 -3088 2464
WIRE -2112 2464 -2112 2432
WIRE -2112 2464 -2144 2464
WIRE -2048 2464 -2048 2448
WIRE -1952 2464 -2048 2464
WIRE -2048 2480 -2048 2464
WIRE 2176 2512 2176 2480
WIRE 2400 2512 2400 2480
WIRE 1360 2528 1360 2496
WIRE 1584 2528 1584 2496
WIRE -2112 2560 -2112 2464
WIRE -2096 2560 -2112 2560
WIRE -2048 2560 -2048 2528
WIRE 3984 2560 3984 2528
WIRE 1856 2576 1856 2544
WIRE 3280 2576 3280 2544
WIRE 3504 2576 3504 2544
WIRE 3712 2576 3712 2544
WIRE -2048 2592 -2048 2576
WIRE -720 2592 -720 2560
WIRE -720 2592 -912 2592
WIRE -544 2592 -720 2592
WIRE 2176 2592 2176 2560
WIRE 2400 2592 2400 2560
WIRE 3936 2592 3920 2592
WIRE 1360 2608 1360 2576
WIRE 1584 2608 1584 2576
WIRE 3232 2608 3184 2608
WIRE 3456 2608 3424 2608
WIRE 3664 2608 3616 2608
WIRE -912 2624 -912 2592
WIRE -544 2624 -544 2592
WIRE 3616 2624 3616 2608
WIRE 3616 2624 3504 2624
WIRE 3984 2624 3984 2608
WIRE 4080 2624 3984 2624
WIRE 2176 2640 2176 2608
WIRE 2400 2640 2400 2608
WIRE 3280 2640 3280 2624
WIRE 3504 2640 3504 2624
WIRE 3712 2640 3712 2624
WIRE 3920 2640 3920 2592
WIRE 3920 2640 3712 2640
WIRE 3984 2640 3984 2624
WIRE -2528 2656 -2528 2624
WIRE 1360 2656 1360 2624
WIRE 1584 2656 1584 2624
WIRE -3232 2672 -3232 2640
WIRE -3008 2672 -3008 2640
WIRE -2800 2672 -2800 2640
WIRE -912 2672 -912 2640
WIRE -544 2672 -544 2640
WIRE 3184 2672 3184 2608
WIRE 3184 2672 3104 2672
WIRE -2576 2688 -2592 2688
WIRE 3280 2688 3280 2656
WIRE -3280 2704 -3328 2704
WIRE -3056 2704 -3088 2704
WIRE -2848 2704 -2896 2704
WIRE -2896 2720 -2896 2704
WIRE -2896 2720 -3008 2720
WIRE -2528 2720 -2528 2704
WIRE -2432 2720 -2528 2720
WIRE 1856 2720 1856 2624
WIRE 1904 2720 1856 2720
WIRE 3232 2720 3152 2720
WIRE 3456 2720 3392 2720
WIRE 3504 2720 3504 2688
WIRE 3664 2720 3648 2720
WIRE 3712 2720 3712 2688
WIRE 3920 2720 3920 2640
WIRE 3936 2720 3920 2720
WIRE 3984 2720 3984 2688
WIRE -3232 2736 -3232 2720
WIRE -3008 2736 -3008 2720
WIRE -2800 2736 -2800 2720
WIRE -2592 2736 -2592 2688
WIRE -2592 2736 -2800 2736
WIRE -2528 2736 -2528 2720
WIRE -544 2736 -544 2720
WIRE -544 2736 -720 2736
WIRE 2176 2736 2176 2688
WIRE 2400 2736 2400 2688
WIRE 2400 2736 2176 2736
WIRE 2544 2736 2400 2736
WIRE 3392 2736 3392 2720
WIRE 3392 2736 3280 2736
WIRE -912 2752 -912 2720
WIRE -720 2752 -720 2736
WIRE -544 2752 -544 2736
WIRE 1360 2752 1360 2704
WIRE 1584 2752 1584 2704
WIRE 1584 2752 1360 2752
WIRE 1696 2752 1584 2752
WIRE 1808 2752 1808 2608
WIRE 1808 2752 1696 2752
WIRE 3280 2752 3280 2736
WIRE 3712 2752 3712 2736
WIRE 3984 2752 3984 2736
WIRE -3328 2768 -3328 2704
WIRE -3328 2768 -3408 2768
WIRE -3232 2784 -3232 2752
WIRE -2048 2784 -2048 2752
WIRE 1856 2784 1856 2720
WIRE 2176 2784 2176 2736
WIRE 2400 2784 2400 2736
WIRE -912 2800 -912 2768
WIRE -720 2800 -720 2768
WIRE -544 2800 -544 2768
WIRE -288 2800 -288 2768
WIRE 0 2800 0 2768
WIRE 1360 2800 1360 2752
WIRE 1584 2800 1584 2752
WIRE 3152 2800 3152 2720
WIRE 3152 2800 3104 2800
WIRE -3280 2816 -3360 2816
WIRE -3056 2816 -3120 2816